# generated using pymatgen
data_SiO2
_symmetry_space_group_name_H-M   'P 1'
_cell_length_a   12.44098984
_cell_length_b   12.44098984
_cell_length_c   12.44098984
_cell_angle_alpha   144.87375019
_cell_angle_beta   110.25580126
_cell_angle_gamma   80.55514637
_symmetry_Int_Tables_number   1
_chemical_formula_structural   SiO2
_chemical_formula_sum   'Si18 O36'
_cell_volume   1013.82853677
_cell_formula_units_Z   18
loop_
 _symmetry_equiv_pos_site_id
 _symmetry_equiv_pos_as_xyz
  1  'x, y, z'
loop_
 _atom_site_type_symbol
 _atom_site_label
 _atom_site_symmetry_multiplicity
 _atom_site_fract_x
 _atom_site_fract_y
 _atom_site_fract_z
 _atom_site_occupancy
  Si  Si0  1  0.22656203  0.02017569  0.79361366  1
  Si  Si1  1  0.77343797  0.56705163  0.79361366  1
  Si  Si2  1  0.77343797  0.97982431  0.20638634  1
  Si  Si3  1  0.22656203  0.43294837  0.20638634  1
  Si  Si4  1  0.34614553  0.84614553  0.50000000  1
  Si  Si5  1  0.65385447  0.15385447  0.50000000  1
  Si  Si6  1  0.38278398  0.08364830  0.29913568  1
  Si  Si7  1  0.61721602  0.91635170  0.70086432  1
  Si  Si8  1  0.21548738  0.91635170  0.29913568  1
  Si  Si9  1  0.78451262  0.08364830  0.70086432  1
  Si  Si10  1  0.97319390  0.88156719  0.50448103  1
  Si  Si11  1  0.02680610  0.53128712  0.90837328  1
  Si  Si12  1  0.62291384  0.11843281  0.09162672  1
  Si  Si13  1  0.37708616  0.46871288  0.49551897  1
  Si  Si14  1  0.02680610  0.11843281  0.49551897  1
  Si  Si15  1  0.97319390  0.46871288  0.09162672  1
  Si  Si16  1  0.37708616  0.88156719  0.90837328  1
  Si  Si17  1  0.62291384  0.53128712  0.50448103  1
  O  O18  1  0.70256524  0.37850557  0.67594032  1
  O  O19  1  0.29743476  0.97337608  0.67594032  1
  O  O20  1  0.29743476  0.62149443  0.32405968  1
  O  O21  1  0.70256524  0.02662392  0.32405968  1
  O  O22  1  0.50000000  0.00000000  0.00000000  1
  O  O23  1  0.50000000  0.50000000  0.50000000  1
  O  O24  1  -0.00000000  0.00000000  0.50000000  1
  O  O25  1  -0.00000000  0.50000000  0.00000000  1
  O  O26  1  0.37335568  0.65604118  0.71731450  1
  O  O27  1  0.62664432  0.34395882  0.28268550  1
  O  O28  1  0.06127233  0.34395882  0.71731450  1
  O  O29  1  0.93872767  0.65604118  0.28268550  1
  O  O30  1  0.86509448  0.93830436  0.57477417  1
  O  O31  1  0.13490552  0.70968069  0.07321088  1
  O  O32  1  0.63646981  0.06169564  0.92678912  1
  O  O33  1  0.13490552  0.06169564  0.42522583  1
  O  O34  1  0.86509448  0.29031931  0.92678912  1
  O  O35  1  0.36353019  0.93830436  0.07321088  1
  O  O36  1  0.63646981  0.70968069  0.57477417  1
  O  O37  1  0.28899596  0.00000000  0.28899596  1
  O  O38  1  0.71100404  -0.00000000  0.71100404  1
  O  O39  1  0.75029592  0.75029592  -0.00000000  1
  O  O40  1  0.24970408  0.24970408  0.00000000  1
  O  O41  1  0.72945033  0.57051763  0.65875209  1
  O  O42  1  0.27054967  0.92930077  0.84106730  1
  O  O43  1  0.08823347  0.42948237  0.15893270  1
  O  O44  1  0.91176653  0.07069923  0.34124791  1
  O  O45  1  0.27054967  0.42948237  0.34124791  1
  O  O46  1  0.72945033  0.07069923  0.15893270  1
  O  O47  1  0.91176653  0.57051763  0.84106730  1
  O  O48  1  0.08823347  0.92930077  0.65875209  1
  O  O49  1  0.30413761  0.89548301  0.40865360  1
  O  O50  1  0.69586239  0.10451699  0.59134640  1
  O  O51  1  0.51317058  0.10451699  0.40865360  1
  O  O52  1  0.48682942  0.89548301  0.59134640  1
  O  O53  1  0.36353019  0.29031931  0.42522583  1
