# generated using pymatgen
data_Mg3Zn
_symmetry_space_group_name_H-M   'P 1'
_cell_length_a   3.10134623
_cell_length_b   3.10134623
_cell_length_c   9.69360411
_cell_angle_alpha   90.00000000
_cell_angle_beta   90.00000000
_cell_angle_gamma   120.00578636
_symmetry_Int_Tables_number   1
_chemical_formula_structural   Mg3Zn
_chemical_formula_sum   'Mg3 Zn1'
_cell_volume   80.74043619
_cell_formula_units_Z   1
loop_
 _symmetry_equiv_pos_site_id
 _symmetry_equiv_pos_as_xyz
  1  'x, y, z'
loop_
 _atom_site_type_symbol
 _atom_site_label
 _atom_site_symmetry_multiplicity
 _atom_site_fract_x
 _atom_site_fract_y
 _atom_site_fract_z
 _atom_site_occupancy
  Mg  Mg0  1  0.00000246  -0.00000246  0.00000000  1
  Mg  Mg1  1  0.66666555  0.33333445  0.73091340  1
  Mg  Mg2  1  0.66666555  0.33333445  0.26908660  1
  Zn  Zn3  1  0.00000045  -0.00000045  0.50000000  1
