# generated using pymatgen
data_SiO2
_symmetry_space_group_name_H-M   'P 1'
_cell_length_a   13.00152069
_cell_length_b   11.13348100
_cell_length_c   9.29804768
_cell_angle_alpha   92.30469030
_cell_angle_beta   107.56189540
_cell_angle_gamma   103.36720593
_symmetry_Int_Tables_number   1
_chemical_formula_structural   SiO2
_chemical_formula_sum   'Si20 O40'
_cell_volume   1239.61300399
_cell_formula_units_Z   20
loop_
 _symmetry_equiv_pos_site_id
 _symmetry_equiv_pos_as_xyz
  1  'x, y, z'
loop_
 _atom_site_type_symbol
 _atom_site_label
 _atom_site_symmetry_multiplicity
 _atom_site_fract_x
 _atom_site_fract_y
 _atom_site_fract_z
 _atom_site_occupancy
  Si  Si0  1  0.26411258  0.49337474  0.22878415  1
  Si  Si1  1  0.73372809  0.49204107  0.77240959  1
  Si  Si2  1  0.26629068  0.54706328  0.91105247  1
  Si  Si3  1  0.73150191  0.43848380  0.09027499  1
  Si  Si4  1  0.32354424  0.38527411  0.68894712  1
  Si  Si5  1  0.67423406  0.60014596  0.31215578  1
  Si  Si6  1  0.12145584  0.42022891  0.42393625  1
  Si  Si7  1  0.87637473  0.56507645  0.57729510  1
  Si  Si8  1  0.41023757  0.14120558  0.73780758  1
  Si  Si9  1  0.58766671  0.84422450  0.26343583  1
  Si  Si10  1  0.32286240  0.86684007  0.64930844  1
  Si  Si11  1  0.67488219  0.11850021  0.35195935  1
  Si  Si12  1  0.12242409  0.64754140  0.62925933  1
  Si  Si13  1  0.87537120  0.33787127  0.37207209  1
  Si  Si14  1  0.46934992  0.37513107  0.29836853  1
  Si  Si15  1  0.52837175  0.61025481  0.70252397  1
  Si  Si16  1  0.46688014  0.76398998  0.92946269  1
  Si  Si17  1  0.53092841  0.22131779  0.07182966  1
  Si  Si18  1  0.41843547  0.74262290  0.43047995  1
  Si  Si19  1  0.57940205  0.24291929  0.57062932  1
  O  O20  1  0.22331127  0.50294005  0.04924039  1
  O  O21  1  0.77440874  0.48235961  0.95192987  1
  O  O22  1  0.35266048  0.40971290  0.27221753  1
  O  O23  1  0.64505218  0.57555200  0.72887693  1
  O  O24  1  0.32080013  0.62939216  0.32334588  1
  O  O25  1  0.67717412  0.35607400  0.67767589  1
  O  O26  1  0.15402349  0.42915796  0.27025983  1
  O  O27  1  0.84383279  0.55643884  0.73103584  1
  O  O28  1  0.37399828  0.66416572  0.97594309  1
  O  O29  1  0.62391925  0.32121875  0.02566759  1
  O  O30  1  0.16981479  0.58814388  0.78389055  1
  O  O31  1  0.82796300  0.39759291  0.21769444  1
  O  O32  1  0.30173041  0.43411046  0.84034486  1
  O  O33  1  0.69606294  0.55160920  0.16063249  1
  O  O34  1  0.35073662  0.25291037  0.70544244  1
  O  O35  1  0.64729295  0.73264755  0.29608965  1
  O  O36  1  0.42678619  0.48556517  0.66369583  1
  O  O37  1  0.57081681  0.49990146  0.33699865  1
  O  O38  1  0.21235229  0.36853215  0.54663314  1
  O  O39  1  0.78533522  0.61641403  0.45442131  1
  O  O40  1  0.12068314  0.55754371  0.48724381  1
  O  O41  1  0.87742605  0.42773792  0.51443746  1
  O  O42  1  0.99963648  0.32676243  0.38884585  1
  O  O43  1  0.99811301  0.65866411  0.61214456  1
  O  O44  1  0.32226533  0.01132217  0.65611045  1
  O  O45  1  0.67565093  0.97408988  0.34511879  1
  O  O46  1  0.51411792  0.16362773  0.67207688  1
  O  O47  1  0.48372483  0.82199506  0.32906130  1
  O  O48  1  0.45148153  0.13353022  0.91895092  1
  O  O49  1  0.54650244  0.85181284  0.08225866  1
  O  O50  1  0.40919409  0.84564338  0.80631037  1
  O  O51  1  0.58838745  0.13957225  0.19501476  1
  O  O52  1  0.19933877  0.78372269  0.63094124  1
  O  O53  1  0.79835014  0.20171525  0.37018821  1
  O  O54  1  0.36200023  0.82987734  0.50824029  1
  O  O55  1  0.63579010  0.15548418  0.49304343  1
  O  O56  1  0.46152100  0.29484169  0.14497178  1
  O  O57  1  0.53613210  0.69047651  0.85595989  1
  O  O58  1  0.49206827  0.29503078  0.44030887  1
  O  O59  1  0.50584719  0.69048949  0.56070009  1
