# generated using pymatgen
data_Sc11Ge10
_symmetry_space_group_name_H-M   'P 1'
_cell_length_a   10.56845880
_cell_length_b   10.56845880
_cell_length_c   10.56845880
_cell_angle_alpha   121.73340985
_cell_angle_beta   121.73340985
_cell_angle_gamma   87.02298375
_symmetry_Int_Tables_number   1
_chemical_formula_structural   Sc11Ge10
_chemical_formula_sum   'Sc22 Ge20'
_cell_volume   811.61946631
_cell_formula_units_Z   2
loop_
 _symmetry_equiv_pos_site_id
 _symmetry_equiv_pos_as_xyz
  1  'x, y, z'
loop_
 _atom_site_type_symbol
 _atom_site_label
 _atom_site_symmetry_multiplicity
 _atom_site_fract_x
 _atom_site_fract_y
 _atom_site_fract_z
 _atom_site_occupancy
  Sc  Sc0  1  0.81050920  0.06247838  0.25196918  1
  Sc  Sc1  1  0.81050920  0.55854102  0.74803082  1
  Sc  Sc2  1  0.06247838  0.81050920  0.25196918  1
  Sc  Sc3  1  0.55854102  0.81050920  0.74803082  1
  Sc  Sc4  1  0.18949080  0.93752162  0.74803082  1
  Sc  Sc5  1  0.18949080  0.44145898  0.25196918  1
  Sc  Sc6  1  0.93752162  0.18949080  0.74803082  1
  Sc  Sc7  1  0.44145898  0.18949080  0.25196918  1
  Sc  Sc8  1  0.17620013  0.17620013  0.35239925  1
  Sc  Sc9  1  0.82379987  0.82379987  0.64760075  1
  Sc  Sc10  1  0.17620013  0.82379987  0.00000000  1
  Sc  Sc11  1  0.82379987  0.17620013  0.00000000  1
  Sc  Sc12  1  0.66234089  0.66234089  -0.00000000  1
  Sc  Sc13  1  0.33765911  0.33765911  0.00000000  1
  Sc  Sc14  1  0.60166136  0.92970617  0.32804581  1
  Sc  Sc15  1  0.60166136  0.27361455  0.67195419  1
  Sc  Sc16  1  0.92970617  0.60166136  0.32804581  1
  Sc  Sc17  1  0.27361455  0.60166136  0.67195419  1
  Sc  Sc18  1  0.39833864  0.07029383  0.67195419  1
  Sc  Sc19  1  0.39833864  0.72638545  0.32804581  1
  Sc  Sc20  1  0.07029383  0.39833864  0.67195419  1
  Sc  Sc21  1  0.72638545  0.39833864  0.32804581  1
  Ge  Ge22  1  0.35639461  -0.00000000  0.35639461  1
  Ge  Ge23  1  0.64360539  0.00000000  0.64360539  1
  Ge  Ge24  1  0.00000000  0.64360539  0.64360539  1
  Ge  Ge25  1  -0.00000000  0.35639461  0.35639461  1
  Ge  Ge26  1  0.88452232  0.88452232  -0.00000000  1
  Ge  Ge27  1  0.11547768  0.11547768  0.00000000  1
  Ge  Ge28  1  0.37543901  0.37543901  0.75087902  1
  Ge  Ge29  1  0.62456099  0.62456099  0.24912098  1
  Ge  Ge30  1  0.37543901  0.62456099  -0.00000000  1
  Ge  Ge31  1  0.62456099  0.37543901  0.00000000  1
  Ge  Ge32  1  0.75000000  0.25000000  0.50000000  1
  Ge  Ge33  1  0.25000000  0.75000000  0.50000000  1
  Ge  Ge34  1  0.88558035  0.88558035  0.41380346  1
  Ge  Ge35  1  0.47177789  0.47177789  0.58619654  1
  Ge  Ge36  1  0.88558035  0.47177789  0.00000000  1
  Ge  Ge37  1  0.47177789  0.88558035  -0.00000000  1
  Ge  Ge38  1  0.11441965  0.11441965  0.58619654  1
  Ge  Ge39  1  0.52822211  0.52822211  0.41380346  1
  Ge  Ge40  1  0.11441965  0.52822211  -0.00000000  1
  Ge  Ge41  1  0.52822211  0.11441965  -0.00000000  1
