# generated using pymatgen
data_Na2O9
_symmetry_space_group_name_H-M   'P 1'
_cell_length_a   11.18499550
_cell_length_b   5.46933299
_cell_length_c   12.68761398
_cell_angle_alpha   66.46267878
_cell_angle_beta   90.00000000
_cell_angle_gamma   90.00000000
_symmetry_Int_Tables_number   1
_chemical_formula_structural   Na2O9
_chemical_formula_sum   'Na8 O36'
_cell_volume   711.58176149
_cell_formula_units_Z   4
loop_
 _symmetry_equiv_pos_site_id
 _symmetry_equiv_pos_as_xyz
  1  'x, y, z'
loop_
 _atom_site_type_symbol
 _atom_site_label
 _atom_site_symmetry_multiplicity
 _atom_site_fract_x
 _atom_site_fract_y
 _atom_site_fract_z
 _atom_site_occupancy
  Na  Na0  1  0.05302828  0.74179757  0.59400433  1
  Na  Na1  1  0.55302828  0.25820243  0.90599567  1
  Na  Na2  1  0.94697172  0.25820243  0.40599567  1
  Na  Na3  1  0.44697172  0.74179757  0.09400433  1
  Na  Na4  1  0.68053181  0.87225987  0.68066481  1
  Na  Na5  1  0.18053181  0.12774013  0.81933519  1
  Na  Na6  1  0.31946819  0.12774013  0.31933519  1
  Na  Na7  1  0.81946819  0.87225987  0.18066481  1
  O  O8  1  0.85514040  0.95751345  0.57104711  1
  O  O9  1  0.35514040  0.04248655  0.92895289  1
  O  O10  1  0.14485960  0.04248655  0.42895289  1
  O  O11  1  0.64485960  0.95751345  0.07104711  1
  O  O12  1  0.38113204  0.19107439  0.82038409  1
  O  O13  1  0.88113204  0.80892561  0.67961591  1
  O  O14  1  0.61886796  0.80892561  0.17961591  1
  O  O15  1  0.11886796  0.19107439  0.32038409  1
  O  O16  1  0.78017830  0.54173307  0.89695819  1
  O  O17  1  0.28017830  0.45826693  0.60304181  1
  O  O18  1  0.21982170  0.45826693  0.10304181  1
  O  O19  1  0.71982170  0.54173307  0.39695819  1
  O  O20  1  0.04572991  0.27819580  0.57437148  1
  O  O21  1  0.54572991  0.72180420  0.92562852  1
  O  O22  1  0.95427009  0.72180420  0.42562852  1
  O  O23  1  0.45427009  0.27819580  0.07437148  1
  O  O24  1  0.45265685  0.03289571  0.47226043  1
  O  O25  1  0.95265685  0.96710429  0.02773957  1
  O  O26  1  0.54734315  0.96710429  0.52773957  1
  O  O27  1  0.04734315  0.03289571  0.97226043  1
  O  O28  1  0.21577571  0.70586996  0.81791666  1
  O  O29  1  0.71577571  0.29413004  0.68208334  1
  O  O30  1  0.78422429  0.29413004  0.18208334  1
  O  O31  1  0.28422429  0.70586996  0.31791666  1
  O  O32  1  0.63614523  0.41553241  0.71432395  1
  O  O33  1  0.13614523  0.58446759  0.78567605  1
  O  O34  1  0.36385477  0.58446759  0.28567605  1
  O  O35  1  0.86385477  0.41553241  0.21432395  1
  O  O36  1  0.88498877  0.51089988  0.92885014  1
  O  O37  1  0.38498877  0.48910012  0.57114986  1
  O  O38  1  0.11501123  0.48910012  0.07114986  1
  O  O39  1  0.61501123  0.51089988  0.42885014  1
  O  O40  1  0.53257893  0.73630911  0.82304095  1
  O  O41  1  0.03257893  0.26369089  0.67695905  1
  O  O42  1  0.46742107  0.26369089  0.17695905  1
  O  O43  1  0.96742107  0.73630911  0.32304095  1
