# generated using pymatgen
data_Ca2As3
_symmetry_space_group_name_H-M   'P 1'
_cell_length_a   5.83648895
_cell_length_b   12.01392129
_cell_length_c   13.78078624
_cell_angle_alpha   90.97291506
_cell_angle_beta   90.00000000
_cell_angle_gamma   90.00000000
_symmetry_Int_Tables_number   1
_chemical_formula_structural   Ca2As3
_chemical_formula_sum   'Ca16 As24'
_cell_volume   966.15728046
_cell_formula_units_Z   8
loop_
 _symmetry_equiv_pos_site_id
 _symmetry_equiv_pos_as_xyz
  1  'x, y, z'
loop_
 _atom_site_type_symbol
 _atom_site_label
 _atom_site_symmetry_multiplicity
 _atom_site_fract_x
 _atom_site_fract_y
 _atom_site_fract_z
 _atom_site_occupancy
  Ca  Ca0  1  0.75543553  0.62511595  0.00043141  1
  Ca  Ca1  1  0.75543553  0.87488405  0.49956859  1
  Ca  Ca2  1  0.24456447  0.37488405  0.99956859  1
  Ca  Ca3  1  0.24456447  0.12511595  0.50043141  1
  Ca  Ca4  1  0.73840637  0.37533803  0.51050394  1
  Ca  Ca5  1  0.73840637  0.12466197  0.98949606  1
  Ca  Ca6  1  0.26159363  0.62466197  0.48949606  1
  Ca  Ca7  1  0.26159363  0.87533803  0.01050394  1
  Ca  Ca8  1  0.45281293  0.99061683  0.75159778  1
  Ca  Ca9  1  0.45281293  0.50938317  0.74840222  1
  Ca  Ca10  1  0.54718707  0.00938317  0.24840222  1
  Ca  Ca11  1  0.54718707  0.49061683  0.25159778  1
  Ca  Ca12  1  0.03525722  0.75000000  0.75000000  1
  Ca  Ca13  1  0.96474278  0.25000000  0.25000000  1
  Ca  Ca14  1  0.09572241  0.25000000  0.75000000  1
  Ca  Ca15  1  0.90427759  0.75000000  0.25000000  1
  As  As16  1  0.45693523  0.23430018  0.15876893  1
  As  As17  1  0.45693523  0.26569982  0.34123107  1
  As  As18  1  0.54306477  0.76569982  0.84123107  1
  As  As19  1  0.54306477  0.73430018  0.65876893  1
  As  As20  1  0.26992107  0.86247680  0.57853793  1
  As  As21  1  0.26992107  0.63752320  0.92146207  1
  As  As22  1  0.73007893  0.13752320  0.42146207  1
  As  As23  1  0.73007893  0.36247680  0.07853793  1
  As  As24  1  0.60455010  0.28820801  0.83388158  1
  As  As25  1  0.60455010  0.21179199  0.66611842  1
  As  As26  1  0.39544990  0.71179199  0.16611842  1
  As  As27  1  0.39544990  0.78820801  0.33388158  1
  As  As28  1  0.95103457  0.51236931  0.67342933  1
  As  As29  1  0.95103457  0.98763069  0.82657067  1
  As  As30  1  0.04896543  0.48763069  0.32657067  1
  As  As31  1  0.04896543  0.01236931  0.17342933  1
  As  As32  1  0.77772064  0.89144544  0.07924730  1
  As  As33  1  0.77772064  0.60855456  0.42075270  1
  As  As34  1  0.22227936  0.10855556  0.92075270  1
  As  As35  1  0.22227936  0.39144444  0.57924730  1
  As  As36  1  0.90025395  0.44827143  0.84437690  1
  As  As37  1  0.90025395  0.05172857  0.65562310  1
  As  As38  1  0.09974605  0.55172857  0.15562310  1
  As  As39  1  0.09974605  0.94827143  0.34437690  1
