# generated using pymatgen
data_SiO2
_symmetry_space_group_name_H-M   'P 1'
_cell_length_a   9.92997742
_cell_length_b   9.93002475
_cell_length_c   12.55616489
_cell_angle_alpha   113.26967763
_cell_angle_beta   113.26942520
_cell_angle_gamma   90.01480713
_symmetry_Int_Tables_number   1
_chemical_formula_structural   SiO2
_chemical_formula_sum   'Si16 O32'
_cell_volume   1026.78600845
_cell_formula_units_Z   16
loop_
 _symmetry_equiv_pos_site_id
 _symmetry_equiv_pos_as_xyz
  1  'x, y, z'
loop_
 _atom_site_type_symbol
 _atom_site_label
 _atom_site_symmetry_multiplicity
 _atom_site_fract_x
 _atom_site_fract_y
 _atom_site_fract_z
 _atom_site_occupancy
  Si  Si0  1  0.04392461  0.10746271  0.39069456  1
  Si  Si1  1  0.89253030  0.65301606  0.10936126  1
  Si  Si2  1  0.04388035  0.78302476  0.39078471  1
  Si  Si3  1  0.78303607  0.34694402  0.89073834  1
  Si  Si4  1  0.21696524  0.65305983  0.10926305  1
  Si  Si5  1  0.78302577  0.04388186  0.89078945  1
  Si  Si6  1  0.10746950  0.34698794  0.89064019  1
  Si  Si7  1  0.10746474  0.04392303  0.89069718  1
  Si  Si8  1  0.34694201  0.78303854  0.39073374  1
  Si  Si9  1  0.34698833  0.10746938  0.39063903  1
  Si  Si10  1  0.95607488  0.89253366  0.60930359  1
  Si  Si11  1  0.65305438  0.21695954  0.60926220  1
  Si  Si12  1  0.21697630  0.95612000  0.10921481  1
  Si  Si13  1  0.89254011  0.95607856  0.10930671  1
  Si  Si14  1  0.65300823  0.89253002  0.60935766  1
  Si  Si15  1  0.95611542  0.21696987  0.60921091  1
  O  O16  1  0.73908477  0.20664606  0.91324037  1
  O  O17  1  0.34785283  0.94860435  0.39739526  1
  O  O18  1  0.04979328  0.94860144  0.39743944  1
  O  O19  1  0.65214946  0.05139446  0.60260258  1
  O  O20  1  0.05140116  0.95020865  0.10256037  1
  O  O21  1  0.79334898  0.82616580  0.58695903  1
  O  O22  1  0.94860119  0.04979280  0.89743950  1
  O  O23  1  0.22098910  0.49999052  -0.00008095  1
  O  O24  1  0.49998395  0.22098557  0.49991796  1
  O  O25  1  0.91914815  0.66887472  0.25009816  1
  O  O26  1  0.79335593  0.26092138  0.58676812  1
  O  O27  1  0.95020320  0.05139674  0.60255871  1
  O  O28  1  0.94860203  0.34785261  0.89739465  1
  O  O29  1  0.05139819  0.65214907  0.10260724  1
  O  O30  1  0.33112581  0.08084294  0.24990130  1
  O  O31  1  0.08084340  0.33111758  0.74989884  1
  O  O32  1  0.00006365  0.22094890  0.49991107  1
  O  O33  1  0.26091992  0.79335723  0.08676259  1
  O  O34  1  0.66895986  0.33102613  0.74999852  1
  O  O35  1  0.99993875  0.77904655  0.50008808  1
  O  O36  1  0.20664175  0.73907782  0.41322986  1
  O  O37  1  0.82616525  0.79335320  0.08695647  1
  O  O38  1  0.33104155  0.66896729  0.24999961  1
  O  O39  1  0.08087712  0.91912714  0.75000066  1
  O  O40  1  0.17383524  0.20665041  0.91304522  1
  O  O41  1  0.77904816  0.99993665  0.00009036  1
  O  O42  1  0.91912358  0.08087692  0.25000035  1
  O  O43  1  0.66887608  0.91916202  0.75009931  1
  O  O44  1  0.20665185  0.17383303  0.41304488  1
  O  O45  1  0.22095575  0.00006362  -0.00008622  1
  O  O46  1  0.50001058  0.77901212  0.50007991  1
  O  O47  1  0.77901123  0.50001948  0.00008038  1
