# generated using pymatgen
data_MgZn
_symmetry_space_group_name_H-M   'P 1'
_cell_length_a   5.24375926
_cell_length_b   5.24376577
_cell_length_c   8.84977766
_cell_angle_alpha   90.00000000
_cell_angle_beta   90.00000000
_cell_angle_gamma   120.00003154
_symmetry_Int_Tables_number   1
_chemical_formula_structural   MgZn
_chemical_formula_sum   'Mg6 Zn6'
_cell_volume   210.74092576
_cell_formula_units_Z   6
loop_
 _symmetry_equiv_pos_site_id
 _symmetry_equiv_pos_as_xyz
  1  'x, y, z'
loop_
 _atom_site_type_symbol
 _atom_site_label
 _atom_site_symmetry_multiplicity
 _atom_site_fract_x
 _atom_site_fract_y
 _atom_site_fract_z
 _atom_site_occupancy
  Mg  Mg0  1  0.33333300  0.66666700  0.43397240  1
  Mg  Mg1  1  0.66666700  0.33333300  0.56602760  1
  Mg  Mg2  1  -0.00000000  0.00000000  0.50000000  1
  Mg  Mg3  1  0.66666700  0.33333300  0.93397240  1
  Mg  Mg4  1  0.33333300  0.66666700  0.06602760  1
  Mg  Mg5  1  -0.00000000  0.00000000  -0.00000000  1
  Zn  Zn6  1  0.82830538  0.17169462  0.25000000  1
  Zn  Zn7  1  0.17169462  0.82830538  0.75000000  1
  Zn  Zn8  1  0.65661076  0.82830538  0.75000000  1
  Zn  Zn9  1  0.17169462  0.34338924  0.75000000  1
  Zn  Zn10  1  0.34338924  0.17169462  0.25000000  1
  Zn  Zn11  1  0.82830538  0.65661076  0.25000000  1
