# generated using pymatgen
data_SiO2
_symmetry_space_group_name_H-M   'P 1'
_cell_length_a   13.55500790
_cell_length_b   13.55500790
_cell_length_c   13.55500790
_cell_angle_alpha   135.63974699
_cell_angle_beta   124.68060088
_cell_angle_gamma   73.50336659
_symmetry_Int_Tables_number   1
_chemical_formula_structural   SiO2
_chemical_formula_sum   'Si24 O48'
_cell_volume   1398.88653611
_cell_formula_units_Z   24
loop_
 _symmetry_equiv_pos_site_id
 _symmetry_equiv_pos_as_xyz
  1  'x, y, z'
loop_
 _atom_site_type_symbol
 _atom_site_label
 _atom_site_symmetry_multiplicity
 _atom_site_fract_x
 _atom_site_fract_y
 _atom_site_fract_z
 _atom_site_occupancy
  Si  Si0  1  0.48267690  0.33265036  0.59306960  1
  Si  Si1  1  0.51732310  0.11039270  0.84997346  1
  Si  Si2  1  0.76041824  0.66734964  0.65002654  1
  Si  Si3  1  0.23958176  0.88960730  0.90693040  1
  Si  Si4  1  0.51732310  0.66734964  0.40693040  1
  Si  Si5  1  0.48267690  0.88960730  0.15002654  1
  Si  Si6  1  0.23958176  0.33265036  0.34997346  1
  Si  Si7  1  0.76041824  0.11039270  0.09306960  1
  Si  Si8  1  0.21442495  0.65693909  0.55748786  1
  Si  Si9  1  0.78557505  0.34306091  0.44251214  1
  Si  Si10  1  0.40054877  0.34306091  0.05748786  1
  Si  Si11  1  0.59945123  0.65693909  0.94251214  1
  Si  Si12  1  0.66853430  0.79319102  0.87534328  1
  Si  Si13  1  0.33146570  0.20680898  0.12465672  1
  Si  Si14  1  0.58215227  0.20680898  0.37534328  1
  Si  Si15  1  0.41784773  0.79319102  0.62465672  1
  Si  Si16  1  0.30757011  0.43274464  0.87482548  1
  Si  Si17  1  0.69242989  0.56725536  0.12517452  1
  Si  Si18  1  0.94208084  0.56725536  0.37482548  1
  Si  Si19  1  0.05791916  0.43274464  0.62517452  1
  Si  Si20  1  -0.00000000  0.71905828  0.71905828  1
  Si  Si21  1  0.50000000  0.28094172  0.78094172  1
  Si  Si22  1  0.00000000  0.28094172  0.28094172  1
  Si  Si23  1  0.50000000  0.71905828  0.21905828  1
  O  O24  1  0.50178060  0.24463175  0.63986748  1
  O  O25  1  0.49821940  0.13808688  0.74285115  1
  O  O26  1  0.89523473  0.75536825  0.75714885  1
  O  O27  1  0.10476527  0.86191312  0.86013252  1
  O  O28  1  0.49821940  0.75536825  0.36013252  1
  O  O29  1  0.50178060  0.86191312  0.25714885  1
  O  O30  1  0.10476527  0.24463175  0.24285115  1
  O  O31  1  0.89523473  0.13808688  0.13986748  1
  O  O32  1  0.51270256  0.50389159  0.75427955  1
  O  O33  1  0.48729744  0.24157699  0.99119003  1
  O  O34  1  0.75038696  0.49610841  0.50880997  1
  O  O35  1  0.24961304  0.75842301  0.74572045  1
  O  O36  1  0.48729744  0.49610841  0.24572045  1
  O  O37  1  0.51270256  0.75842301  0.00880997  1
  O  O38  1  0.24961304  0.50389159  0.49119003  1
  O  O39  1  0.75038696  0.24157699  0.25427955  1
  O  O40  1  0.57304265  0.29729972  0.53427819  1
  O  O41  1  0.42695735  0.96123554  0.72425807  1
  O  O42  1  0.73697847  0.70270028  0.77574193  1
  O  O43  1  0.26302153  0.03876446  0.96572181  1
  O  O44  1  0.42695735  0.70270028  0.46572181  1
  O  O45  1  0.57304265  0.03876446  0.27574193  1
  O  O46  1  0.26302153  0.29729972  0.22425807  1
  O  O47  1  0.73697847  0.96123554  0.03427819  1
  O  O48  1  0.34200534  0.28368969  0.44168534  1
  O  O49  1  0.65799466  0.09968100  0.94168534  1
  O  O50  1  0.65799466  0.71631031  0.55831466  1
  O  O51  1  0.34200534  0.90031900  0.05831466  1
  O  O52  1  0.06884981  0.63263843  0.43621137  1
  O  O53  1  0.93115019  0.36736157  0.56378863  1
  O  O54  1  0.30357294  0.36736157  0.93621137  1
  O  O55  1  0.69642706  0.63263843  0.06378863  1
  O  O56  1  0.28706710  0.73083294  0.55623416  1
  O  O57  1  0.71293290  0.26916706  0.44376584  1
  O  O58  1  0.32540123  0.26916706  0.05623416  1
  O  O59  1  0.67459877  0.73083294  0.94376584  1
  O  O60  1  0.52638359  0.77638359  0.75000000  1
  O  O61  1  0.47361641  0.22361641  0.25000000  1
  O  O62  1  0.37841577  0.60020866  0.03503945  1
  O  O63  1  0.62158423  0.65662368  0.22179288  1
  O  O64  1  0.93483079  0.39979134  0.27820712  1
  O  O65  1  0.06516921  0.34337632  0.46496055  1
  O  O66  1  0.62158423  0.39979134  0.96496055  1
  O  O67  1  0.37841577  0.34337632  0.77820712  1
  O  O68  1  0.06516921  0.60020866  0.72179288  1
  O  O69  1  0.93483079  0.65662368  0.53503945  1
  O  O70  1  0.16971171  0.41971171  0.75000000  1
  O  O71  1  0.83028829  0.58028829  0.25000000  1
