# generated using pymatgen
data_SiO2
_symmetry_space_group_name_H-M   'P 1'
_cell_length_a   13.34586323
_cell_length_b   13.34586323
_cell_length_c   13.34586323
_cell_angle_alpha   92.22072684
_cell_angle_beta   92.22072684
_cell_angle_gamma   157.29455580
_symmetry_Int_Tables_number   1
_chemical_formula_structural   SiO2
_chemical_formula_sum   'Si16 O32'
_cell_volume   899.57745243
_cell_formula_units_Z   16
loop_
 _symmetry_equiv_pos_site_id
 _symmetry_equiv_pos_as_xyz
  1  'x, y, z'
loop_
 _atom_site_type_symbol
 _atom_site_label
 _atom_site_symmetry_multiplicity
 _atom_site_fract_x
 _atom_site_fract_y
 _atom_site_fract_z
 _atom_site_occupancy
  Si  Si0  1  0.77375471  0.65777950  0.43153521  1
  Si  Si1  1  0.34222050  0.77375471  0.11597521  1
  Si  Si2  1  0.65777950  0.22624529  0.88402479  1
  Si  Si3  1  0.77375471  0.34222050  0.11597521  1
  Si  Si4  1  0.22624529  0.65777950  0.88402479  1
  Si  Si5  1  0.22624529  0.34222050  0.56846479  1
  Si  Si6  1  0.65777950  0.77375471  0.43153521  1
  Si  Si7  1  0.34222050  0.22624529  0.56846479  1
  Si  Si8  1  0.12050793  -0.00000000  0.12050793  1
  Si  Si9  1  -0.00000000  0.12050793  0.12050793  1
  Si  Si10  1  -0.00000000  0.87949207  0.87949207  1
  Si  Si11  1  0.87949207  -0.00000000  0.87949207  1
  Si  Si12  1  0.71913807  0.50000000  0.21913807  1
  Si  Si13  1  0.50000000  0.71913807  0.21913807  1
  Si  Si14  1  0.50000000  0.28086193  0.78086193  1
  Si  Si15  1  0.28086193  0.50000000  0.78086193  1
  O  O16  1  0.69321329  0.69321329  0.38642658  1
  O  O17  1  0.30678671  0.69321329  -0.00000000  1
  O  O18  1  0.69321329  0.30678671  0.00000000  1
  O  O19  1  0.30678671  0.30678671  0.61357342  1
  O  O20  1  0.06663813  0.93336187  0.50000000  1
  O  O21  1  0.56663813  0.06663813  0.13327627  1
  O  O22  1  0.93336187  0.43336187  0.86672373  1
  O  O23  1  0.43336187  0.56663813  0.50000000  1
  O  O24  1  0.93336187  0.06663813  0.50000000  1
  O  O25  1  0.43336187  0.93336187  0.86672373  1
  O  O26  1  0.06663813  0.56663813  0.13327627  1
  O  O27  1  0.56663813  0.43336187  0.50000000  1
  O  O28  1  0.76912172  0.57112168  0.34024339  1
  O  O29  1  0.42887832  0.76912172  0.19800004  1
  O  O30  1  0.57112168  0.23087828  0.80199996  1
  O  O31  1  0.76912172  0.42887832  0.19800004  1
  O  O32  1  0.23087828  0.57112168  0.80199996  1
  O  O33  1  0.23087828  0.42887832  0.65975661  1
  O  O34  1  0.57112168  0.76912172  0.34024339  1
  O  O35  1  0.42887832  0.23087828  0.65975661  1
  O  O36  1  0.41955634  0.24984516  0.16971318  1
  O  O37  1  0.24984516  0.41955634  0.16971318  1
  O  O38  1  0.24984516  0.08013198  0.83028682  1
  O  O39  1  0.91986802  0.75015484  0.16971318  1
  O  O40  1  0.58044366  0.75015484  0.83028682  1
  O  O41  1  0.08013198  0.24984516  0.83028682  1
  O  O42  1  0.75015484  0.91986802  0.16971318  1
  O  O43  1  0.75015484  0.58044366  0.83028682  1
  O  O44  1  0.07138925  0.07138925  0.14277849  1
  O  O45  1  0.92861075  0.07138925  0.00000000  1
  O  O46  1  0.07138925  0.92861075  -0.00000000  1
  O  O47  1  0.92861075  0.92861075  0.85722151  1
