# generated using pymatgen
data_SiO2
_symmetry_space_group_name_H-M   'P 1'
_cell_length_a   13.81934545
_cell_length_b   6.91058365
_cell_length_c   6.41899888
_cell_angle_alpha   90.00000000
_cell_angle_beta   90.00000000
_cell_angle_gamma   90.00000000
_symmetry_Int_Tables_number   1
_chemical_formula_structural   SiO2
_chemical_formula_sum   'Si10 O20'
_cell_volume   613.01274156
_cell_formula_units_Z   10
loop_
 _symmetry_equiv_pos_site_id
 _symmetry_equiv_pos_as_xyz
  1  'x, y, z'
loop_
 _atom_site_type_symbol
 _atom_site_label
 _atom_site_symmetry_multiplicity
 _atom_site_fract_x
 _atom_site_fract_y
 _atom_site_fract_z
 _atom_site_occupancy
  Si  Si0  1  0.11519350  0.00000000  0.50068368  1
  Si  Si1  1  0.61519350  0.00000000  0.49931632  1
  Si  Si2  1  0.88480650  0.00000000  0.49931632  1
  Si  Si3  1  0.38480650  0.00000000  0.50068368  1
  Si  Si4  1  0.25000000  0.26965510  0.26221558  1
  Si  Si5  1  0.75000000  0.73034490  0.73778442  1
  Si  Si6  1  0.75000000  0.26965510  0.73778442  1
  Si  Si7  1  0.25000000  0.73034490  0.26221558  1
  Si  Si8  1  0.25000000  0.00000000  0.88147638  1
  Si  Si9  1  0.75000000  0.00000000  0.11852362  1
  O  O10  1  -0.00000000  0.00000000  0.50000000  1
  O  O11  1  0.50000000  0.00000000  0.50000000  1
  O  O12  1  0.15440075  0.19136097  0.38162636  1
  O  O13  1  0.65440075  0.80863903  0.61837364  1
  O  O14  1  0.84559925  0.19136097  0.61837364  1
  O  O15  1  0.34559925  0.80863903  0.38162636  1
  O  O16  1  0.84559925  0.80863903  0.61837364  1
  O  O17  1  0.34559925  0.19136097  0.38162636  1
  O  O18  1  0.15440075  0.80863903  0.38162636  1
  O  O19  1  0.65440075  0.19136097  0.61837364  1
  O  O20  1  0.15405512  0.00000000  0.73786464  1
  O  O21  1  0.65405512  0.00000000  0.26213536  1
  O  O22  1  0.84594488  0.00000000  0.26213536  1
  O  O23  1  0.34594488  0.00000000  0.73786464  1
  O  O24  1  0.25000000  0.50000000  0.26130484  1
  O  O25  1  0.75000000  0.50000000  0.73869516  1
  O  O26  1  0.25000000  0.19169938  0.02517467  1
  O  O27  1  0.75000000  0.80830062  0.97482533  1
  O  O28  1  0.75000000  0.19169938  0.97482533  1
  O  O29  1  0.25000000  0.80830062  0.02517467  1
