# generated using pymatgen
data_SiO2
_symmetry_space_group_name_H-M   'P 1'
_cell_length_a   7.17367623
_cell_length_b   7.17367623
_cell_length_c   20.87529174
_cell_angle_alpha   90.00000000
_cell_angle_beta   90.00000000
_cell_angle_gamma   90.00000000
_symmetry_Int_Tables_number   1
_chemical_formula_structural   SiO2
_chemical_formula_sum   'Si18 O36'
_cell_volume   1074.27655329
_cell_formula_units_Z   18
loop_
 _symmetry_equiv_pos_site_id
 _symmetry_equiv_pos_as_xyz
  1  'x, y, z'
loop_
 _atom_site_type_symbol
 _atom_site_label
 _atom_site_symmetry_multiplicity
 _atom_site_fract_x
 _atom_site_fract_y
 _atom_site_fract_z
 _atom_site_occupancy
  Si  Si0  1  0.28420259  0.50000000  0.07671794  1
  Si  Si1  1  0.50000000  0.28420259  0.57671794  1
  Si  Si2  1  0.50000000  0.71579741  0.57671794  1
  Si  Si3  1  0.28420259  0.50000000  0.92328206  1
  Si  Si4  1  0.71579741  0.50000000  0.92328206  1
  Si  Si5  1  0.71579741  0.50000000  0.07671794  1
  Si  Si6  1  0.50000000  0.28420259  0.42328206  1
  Si  Si7  1  0.50000000  0.71579741  0.42328206  1
  Si  Si8  1  0.00000000  0.79382252  0.12676787  1
  Si  Si9  1  0.20617748  0.00000000  0.62676787  1
  Si  Si10  1  0.79382252  0.00000000  0.62676787  1
  Si  Si11  1  0.00000000  0.20617748  0.87323213  1
  Si  Si12  1  0.00000000  0.79382252  0.87323213  1
  Si  Si13  1  0.00000000  0.20617748  0.12676787  1
  Si  Si14  1  0.79382252  0.00000000  0.37323213  1
  Si  Si15  1  0.20617748  0.00000000  0.37323213  1
  Si  Si16  1  0.00000000  0.00000000  0.75000000  1
  Si  Si17  1  0.00000000  0.00000000  0.25000000  1
  O  O18  1  0.26575018  0.50000000  -0.00000000  1
  O  O19  1  0.50000000  0.26575018  0.50000000  1
  O  O20  1  0.50000000  0.73424982  0.50000000  1
  O  O21  1  0.73424982  0.50000000  -0.00000000  1
  O  O22  1  0.18450008  0.68361875  0.10488895  1
  O  O23  1  0.31638125  0.18450008  0.60488895  1
  O  O24  1  0.68361875  0.81549992  0.60488895  1
  O  O25  1  0.18450008  0.31638125  0.89511105  1
  O  O26  1  0.81549992  0.68361875  0.89511105  1
  O  O27  1  0.81549992  0.31638125  0.10488895  1
  O  O28  1  0.68361875  0.18450008  0.39511105  1
  O  O29  1  0.31638125  0.81549992  0.39511105  1
  O  O30  1  0.81549992  0.31638125  0.89511105  1
  O  O31  1  0.68361875  0.81549992  0.39511105  1
  O  O32  1  0.31638125  0.18450008  0.39511105  1
  O  O33  1  0.81549992  0.68361875  0.10488895  1
  O  O34  1  0.18450008  0.31638125  0.10488895  1
  O  O35  1  0.18450008  0.68361875  0.89511105  1
  O  O36  1  0.31638125  0.81549992  0.60488895  1
  O  O37  1  0.68361875  0.18450008  0.60488895  1
  O  O38  1  0.50000000  0.50000000  0.09742872  1
  O  O39  1  0.50000000  0.50000000  0.59742872  1
  O  O40  1  0.50000000  0.50000000  0.90257128  1
  O  O41  1  0.50000000  0.50000000  0.40257128  1
  O  O42  1  0.00000000  0.00000000  0.09509616  1
  O  O43  1  0.00000000  0.00000000  0.59509616  1
  O  O44  1  0.00000000  0.00000000  0.90490384  1
  O  O45  1  0.00000000  0.00000000  0.40490384  1
  O  O46  1  0.00000000  0.81786823  0.20409400  1
  O  O47  1  0.18213077  0.00000000  0.70409400  1
  O  O48  1  0.81786823  0.00000000  0.70409400  1
  O  O49  1  0.00000000  0.18213077  0.79590600  1
  O  O50  1  0.00000000  0.81786823  0.79590600  1
  O  O51  1  0.00000000  0.18213077  0.20409400  1
  O  O52  1  0.81786823  0.00000000  0.29590600  1
  O  O53  1  0.18213077  0.00000000  0.29590600  1
